OPT_V9/My_campus_w_initial_sub_3_active_28_03_16_10/powerflow_results_t3.txt
Pandapower Network Debug Info
==================================================

BUS:
       vm_pu  va_degree      p_mw        q_mvar
0   1.003325  -0.180823  0.000037 -4.269298e-03
1   1.004791  -0.186577 -0.000780 -1.313636e-03
2   1.005407  -0.159152 -0.000686  0.000000e+00
3   1.004308  -0.267954  0.000192 -2.145182e-03
4   0.999906  -0.083986  0.000356 -1.467264e-07
5   1.000836  -0.032920  0.000620 -2.307351e-06
6   1.002470  -0.044498 -0.001057 -1.057136e-03
7   1.001283  -0.138505  0.000409 -3.237309e-03
8   1.000339  -0.064632  0.001037 -5.373860e-03
9   0.999904   0.000018  0.010685  1.018978e-02
10  0.999891   0.000048  0.010224  7.490049e-03
11  0.999879   0.000104  0.013668  1.265095e-02
12  0.999854  -0.000995  0.008891  7.044253e-03
13  0.999835  -0.000899  0.012713  9.072217e-03
14  0.999824  -0.000788  0.012750  1.391945e-02
15  0.999949  -0.000131  0.000000  0.000000e+00
16  0.999949  -0.000135  0.000000  0.000000e+00
17  0.999859  -0.000998  0.000000  0.000000e+00
18  0.999859  -0.001003  0.000000  0.000000e+00
19  1.000000   0.000000 -0.033399 -2.763210e-02
20  1.000000   0.000004  0.000000  0.000000e+00
21  1.000000   0.000000 -0.035761 -2.538128e-02
22  1.000000   0.000003  0.000000  0.000000e+00
--------------------------------------------------

LINE:
    p_from_mw   q_from_mvar   p_to_mw     q_to_mvar         pl_mw       ql_mvar  i_from_ka   i_to_ka      i_ka  vm_from_pu  va_from_degree  vm_to_pu  va_to_degree  loading_percent
0    0.033389  2.363211e-02 -0.033387 -2.363084e-02  1.636680e-06  1.276147e-06   0.001574  0.001574  0.001574    1.000000        0.000004  0.999949     -0.000131         0.684547
1    0.035751  2.138129e-02 -0.035746 -2.137765e-02  4.667652e-06  3.639445e-06   0.001603  0.001603  0.001603    1.000000        0.000003  0.999859     -0.000998         0.697115
2    0.034578  3.033246e-02 -0.034577 -3.033118e-02  1.636221e-06  1.275789e-06   0.001771  0.001771  0.001771    0.999949       -0.000131  0.999904      0.000018         0.769790
3    0.008891  7.044288e-03 -0.008891 -7.044253e-03  4.451114e-08  3.470607e-08   0.000437  0.000437  0.000437    0.999859       -0.000998  0.999854     -0.000995         0.189858
4    0.025464  2.299231e-02 -0.025464 -2.299181e-02  6.438027e-07  5.019836e-07   0.001321  0.001321  0.001321    0.999859       -0.000998  0.999835     -0.000899         0.574229
5   -0.001202 -7.701467e-03  0.001230  7.723626e-03  2.841992e-05  2.215948e-05   0.011251  0.011251  0.011251    0.999949       -0.000135  1.003325     -0.180823         4.891812
6   -0.000434 -1.057143e-03  0.000435  1.057933e-03  1.013621e-06  7.903367e-07   0.001650  0.001650  0.001650    0.999859       -0.001003  1.000836     -0.032920         0.717314
7    0.000416 -3.231714e-03 -0.000409  3.237309e-03  7.175059e-06  5.594512e-06   0.004704  0.004704  0.004704    0.999859       -0.001003  1.001283     -0.138505         2.045112
8    0.001399 -5.369758e-03 -0.001393  5.373887e-03  5.295505e-06  4.128992e-06   0.008010  0.008010  0.008010    0.999859       -0.001003  1.000339     -0.064632         3.482731
9   -0.023892 -2.014114e-02  0.023892  2.014140e-02  3.377660e-07  2.633617e-07   0.001203  0.001203  0.001203    0.999891        0.000048  0.999904      0.000018         0.523000
10  -0.013668 -1.265095e-02  0.013668  1.265109e-02  1.696792e-07  1.323017e-07   0.000717  0.000717  0.000717    0.999879        0.000104  0.999891      0.000048         0.311710
11  -0.012750 -1.391945e-02  0.012751  1.391959e-02  1.743273e-07  1.359258e-07   0.000727  0.000727  0.000727    0.999824       -0.000788  0.999835     -0.000899         0.315950
12   0.001465  1.313309e-03 -0.001463 -1.311540e-03  2.268184e-06  1.768541e-06   0.002826  0.002826  0.002826    1.004791       -0.186577  1.003325     -0.180823         1.228761
13  -0.000192  2.145182e-03  0.000195 -2.142788e-03  3.070697e-06  2.394273e-06   0.003095  0.003095  0.003095    1.004308       -0.267954  1.003325     -0.180823         1.345812
14   0.000686  6.196865e-11 -0.000685  3.278883e-07  4.206019e-07  3.279502e-07   0.000984  0.000984  0.000984    1.005407       -0.159152  1.004791     -0.186577         0.427918
15   0.000356 -2.650645e-08 -0.000356  1.467264e-07  1.541842e-07  1.202200e-07   0.000514  0.000514  0.000514    1.000339       -0.064632  0.999906     -0.083986         0.223393
16   0.001057  1.057136e-03 -0.001055 -1.055626e-03  1.936327e-06  1.509786e-06   0.002153  0.002153  0.002153    1.002470       -0.044498  1.000836     -0.032920         0.935893
--------------------------------------------------

TRAFO:
    p_hv_mw  q_hv_mvar   p_lv_mw  q_lv_mvar    pl_mw  ql_mvar   i_hv_ka   i_lv_ka  vm_hv_pu  va_hv_degree  vm_lv_pu  va_lv_degree  loading_percent
0 -0.001192  -0.006702  0.001202   0.007701  0.00001    0.001  0.000262  0.011251  0.999949     -0.000131  0.999949     -0.000135         0.077950
1  0.001390  -0.008659 -0.001380   0.009659  0.00001    0.001  0.000338  0.014085  0.999859     -0.000998  0.999859     -0.001003         0.097581
2  0.033399   0.027632 -0.033389  -0.023632  0.00001    0.004  0.000358  0.001574  1.000000      0.000000  1.000000      0.000004         0.108368
3  0.035761   0.025381 -0.035751  -0.021381  0.00001    0.004  0.000362  0.001603  1.000000      0.000000  1.000000      0.000003         0.109631
--------------------------------------------------
